data/case2_psse_ultc_ntp10_fixture.m
function mpc = case2_psse_ultc_ntp10_fixture(pd, qd)
% case2_psse_ultc_ntp10_fixture - Shared 2-bus PSS/E ULTC fixture.

mpc.version = '2';
mpc.baseMVA = 100;
mpc.bus = [
    1 3 0  0  0 0 1 1.00 0 230 1 1.1 0.9
    2 1 pd qd 0 0 1 1.00 0 115 1 1.1 0.9
];
mpc.gen = [
    1 pd 0 300 -300 1 100 1 200 0 0 0 0 0 0 0 0 0 0 0 0
];
mpc.branch = [
    1 2 0.01 0.10 0 250 250 250 1.00 0 1 -360 360
];

cols = {'I', 'J', 'K', 'CKT', 'CW', 'CZ', 'CM', 'MAG1', ...
    'MAG2', 'NMETR', 'NAME', 'STAT', 'O1', 'F1', 'O2', 'F2', ...
    'O3', 'F3', 'O4', 'F4', 'R1_2', 'X1_2', 'SBASE1_2', ...
    'WINDV1', 'NOMV1', 'ANG1', ...
    'RATE11', 'RATE21', 'RATE31', 'RATE41', 'RATE51', 'RATE61', ...
    'RATE71', 'RATE81', 'RATE91', 'RATE101', 'RATE111', 'RATE121', ...
    'COD1', 'CONT1', 'RMA1', 'RMI1', 'VMA1', 'VMI1', ...
    'NTP1', 'TAB1', 'CR1', 'CX1', 'CNXA1', 'NOD1', 'WINDV2', 'NOMV2'};
col = struct();
for k = 1:length(cols)
    col.(lower(regexprep(cols{k}, '[^A-Za-z0-9_]', '_'))) = k;
end

num = nan(1, 52);
num([1 2 3 5 6 7 12 21 22 23 24 25 26 27:38 39 40 ...
        41 42 43 44 45 46 47 48 49 50 51 52]) = ...
    [1 2 0 1 1 1 1 0.01 0.10 100 1.00 0 0 zeros(1, 12) ...
        1 -2 1.10 0.90 1.03 0.95 10 0 0 0 0 0 1 0];
mpc.psse.rev = 34;
mpc.psse.system.solver.ACTAPS = 1;
mpc.psse.system.solver.SWSHNT = 0;
mpc.psse.system.solver.FLATST = 1;
mpc.psse.system.adjust.MXTPSS = 20;
mpc.psse.system.newton.ITMXN = 40;
mpc.psse.system.newton.VCTOLV = 1e-5;
mpc.psse.xfmr.two = struct( ...
    'colnames', {cols}, ...
    'num', num, ...
    'txt', {cell(1, 52)}, ...
    'branch_idx', 1, ...
    'col', col ...
);
mpc.psse.xfmr.three = struct( ...
    'colnames', {{}}, ...
    'num', zeros(0, 112), ...
    'txt', {cell(0, 112)}, ...
    'branch_idx', zeros(0, 3), ...
    'col', struct() ...
);
